%chk=2.chk
# opt freq b3lyp/6-31g* geom=connectivity

Title Card Required

0 1
 C                 -6.67037113    0.51295938    0.00000000
 H                 -6.53184238    1.57395409    0.00000000
 H                 -7.65929498    0.10438917    0.00000000
 C                 -5.59760890   -0.31513979    0.00000000
 H                 -5.73613764   -1.37613451    0.00000000
 C                 -4.17429793    0.27289583    0.00000000
 H                 -4.03576918    1.33389054    0.00000000
 C                 -3.09663457   -0.54881502   -0.00000000
 H                 -3.22885707   -1.61061406   -0.00000000
 C                 -1.55666175   -0.55796478   -0.00000000
 H                 -1.02901928   -1.48882106   -0.00000000
 C                 -0.86747334    0.60890556   -0.00000000
 H                 -1.38957591    1.54288035    0.00000000
 C                  0.67241794    0.59060637   -0.00000000
 H                  0.82009705    1.65036619   -0.00000000
 C                  1.74295047   -0.24037325   -0.00000000
 H                  1.60157042   -1.30099179   -0.00000002
 H                  2.73296894    0.16553739    0.00000002

 1 2 1.0 3 1.0 4 2.0
 2
 3
 4 5 1.0 6 1.0
 5
 6 7 1.0 8 2.0
 7
 8 9 1.0 10 1.0
 9
 10 11 1.0 12 2.0
 11
 12 13 1.0 14 1.0
 13
 14 15 1.0 16 2.0
 15
 16 17 1.0 18 1.0
 17
 18

