%chk=3.chk
# opt freq b3lyp/6-31g* geom=connectivity

Title Card Required

0 1
 C                 -6.08187158   -2.83625727    0.00000000
 H                 -5.54870783   -3.76396219    0.00000000
 H                 -7.15187158   -2.83625727    0.00000000
 C                 -5.40659727   -1.66127997    0.00000000
 H                 -5.93976102   -0.73357505    0.00000000
 C                 -3.86659727   -1.66127997    0.00000000
 H                 -3.33343352   -2.58898489    0.00000000
 C                 -3.18435387   -0.49033549    0.00000000
 H                 -3.71199634    0.44052080   -0.00000000
 C                 -1.64438105   -0.49948524    0.00000000
 H                 -1.50300100    0.56113329    0.00000000
 C                 -0.56893022   -1.32408973    0.00000000
 H                  0.01061248   -0.42462864   -0.00000000
 C                  0.13784129   -2.69232729    0.00000000
 H                 -0.44170141   -3.59178838   -0.00000000
 C                  1.49129612   -2.76108108    0.00000000
 H                  2.07617265   -1.86507916   -0.00000001
 H                  1.97670773   -3.71464050    0.00000001

 1 2 1.0 3 1.0 4 2.0
 2
 3
 4 5 1.0 6 1.0
 5
 6 7 1.0 8 2.0
 7
 8 9 1.0 10 1.0
 9
 10 11 1.0 12 2.0
 11
 12 13 1.0 14 1.0
 13
 14 15 1.0 16 2.0
 15
 16 17 1.0 18 1.0
 17
 18

