%chk=6.chk
# opt freq b3lyp/6-31g* geom=connectivity

Title Card Required

0 1
 C                 -6.25520559   -1.16762388   -0.00000000
 H                 -6.12929399   -0.10505799    0.00000000
 H                 -7.23920475   -1.58791622   -0.00000000
 C                 -5.17267913   -1.98291739    0.00000000
 H                 -5.29859073   -3.04548328   -0.00000000
 C                 -3.63267913   -1.98291739   -0.00000000
 H                 -3.09951538   -2.91062231   -0.00000000
 C                 -2.95043573   -0.81197291   -0.00000000
 H                 -3.47807820    0.11888338    0.00000000
 C                 -1.41046291   -0.82112267   -0.00000000
 H                 -1.26908286    0.23949587   -0.00000000
 C                 -0.33501209   -1.64572715   -0.00000000
 H                 -0.47008808   -2.70716697   -0.00000000
 C                  1.08637813   -1.05306381    0.00000000
 H                  1.61954188   -1.98076873    0.00000000
 C                  1.76862154    0.11788067    0.00000000
 H                  1.24097907    1.04873696    0.00000002
 H                  2.83860265    0.11152337   -0.00000002

 1 2 1.0 3 1.0 4 2.0
 2
 3
 4 5 1.0 6 1.0
 5
 6 7 1.0 8 2.0
 7
 8 9 1.0 10 1.0
 9
 10 11 1.0 12 2.0
 11
 12 13 1.0 14 1.0
 13
 14 15 1.0 16 2.0
 15
 16 17 1.0 18 1.0
 17
 18

